Circuit: * C:\users\x\Desktop\howland2.asc


Date: Sun Oct 14 09:44:00 2018
Total elapsed time: 0.040 seconds.

tnom = 27
temp = 27
method = trap
totiter = 326
traniter = 0
tranpoints = 0
accept = 0
rejected = 0
matrix size = 91
fillins = 70
solver = Normal
Matrix Compiler1: 5.56 KB object code size  2.5/1.5/[0.9]
Matrix Compiler2: 7.26 KB object code size  1.4/1.9/[1.0]

